functions/OneTimeScripts/validationAgainstOpenDSS_MATLAB/ieee123_1ph_created/results/pv010_batt010/voltages6.csv
Bus, BasekV, Node1, Magnitude1, Angle1, pu1
"150", 4.16, 1,       2400,    0.0,   0.99926
"149", 4.16, 1,       2415,    0.0,    1.0055
"1", 4.16, 1,    2406.83,   -0.2,    1.0021
"2", 4.16, 1,    2406.71,   -0.2,    1.0021
"3", 4.16, 1,    2405.98,   -0.2,    1.0017
"7", 4.16, 1,    2401.22,   -0.3,   0.99977
"4", 4.16, 1,    2405.71,   -0.2,    1.0016
"5", 4.16, 1,    2405.32,   -0.2,    1.0015
"6", 4.16, 1,    2404.98,   -0.2,    1.0013
"8", 4.16, 1,    2397.53,   -0.4,   0.99823
"12", 4.16, 1,    2397.37,   -0.4,   0.99817
"9", 4.16, 1,    2397.08,   -0.4,   0.99804
"13", 4.16, 1,    2392.29,   -0.6,   0.99605
"9R", 4.16, 1,    2322.17,   -0.4,   0.96685
"14", 4.16, 1,    2321.27,   -0.4,   0.96648
"34", 4.16, 1,    2391.77,   -0.6,   0.99584
"18", 4.16, 1,     2383.4,   -0.6,   0.99235
"11", 4.16, 1,    2320.92,   -0.4,   0.96634
"10", 4.16, 1,     2321.1,   -0.4,   0.96641
"15", 4.16, 1,    2391.57,   -0.6,   0.99575
"16", 4.16, 1,    2391.06,   -0.6,   0.99554
"17", 4.16, 1,    2391.33,   -0.6,   0.99565
"19", 4.16, 1,    2382.71,   -0.6,   0.99206
"21", 4.16, 1,    2382.61,   -0.7,   0.99202
"20", 4.16, 1,    2382.27,   -0.6,   0.99188
"22", 4.16, 1,    2381.89,   -0.7,   0.99172
"23", 4.16, 1,    2382.05,   -0.7,   0.99179
"24", 4.16, 1,     2381.3,   -0.7,   0.99147
"25", 4.16, 1,    2381.56,   -0.7,   0.99158
"25R", 4.16, 1,     2441.1,   -0.7,    1.0164
"26", 4.16, 1,    2440.79,   -0.7,    1.0162
"28", 4.16, 1,    2381.37,   -0.7,    0.9915
"27", 4.16, 1,    2440.68,   -0.7,    1.0162
"31", 4.16, 1,    2440.49,   -0.7,    1.0161
"33", 4.16, 1,    2440.01,   -0.7,    1.0159
"29", 4.16, 1,    2381.12,   -0.7,    0.9914
"30", 4.16, 1,    2380.97,   -0.7,   0.99134
"250", 4.16, 1,    2380.97,   -0.7,   0.99134
"32", 4.16, 1,    2440.29,   -0.7,     1.016
"35", 4.16, 1,    2380.66,   -0.7,   0.99121
"36", 4.16, 1,    2380.09,   -0.7,   0.99097
"40", 4.16, 1,    2379.16,   -0.7,   0.99058
"37", 4.16, 1,    2379.68,   -0.7,    0.9908
"38", 4.16, 1,    2379.74,   -0.7,   0.99083
"39", 4.16, 1,    2379.52,   -0.7,   0.99073
"41", 4.16, 1,    2378.94,   -0.7,   0.99049
"42", 4.16, 1,    2377.71,   -0.7,   0.98998
"43", 4.16, 1,    2377.02,   -0.7,   0.98969
"44", 4.16, 1,    2376.67,   -0.7,   0.98955
"45", 4.16, 1,     2376.4,   -0.7,   0.98943
"47", 4.16, 1,    2375.49,   -0.7,   0.98905
"46", 4.16, 1,    2376.19,   -0.7,   0.98935
"48", 4.16, 1,    2375.34,   -0.7,   0.98899
"49", 4.16, 1,    2374.89,   -0.7,   0.98881
"50", 4.16, 1,    2374.73,   -0.7,   0.98874
"51", 4.16, 1,    2374.68,   -0.7,   0.98872
"151", 4.16, 1,    2374.68,   -0.7,   0.98872
"52", 4.16, 1,    2390.04,   -0.7,   0.99511
"53", 4.16, 1,    2389.01,   -0.7,   0.99468
"54", 4.16, 1,    2388.42,   -0.8,   0.99444
"55", 4.16, 1,     2388.3,   -0.8,   0.99439
"57", 4.16, 1,    2386.92,   -0.9,   0.99381
"56", 4.16, 1,    2388.25,   -0.8,   0.99437
"58", 4.16, 1,    2386.75,   -0.9,   0.99374
"60", 4.16, 1,    2383.92,   -1.1,   0.99257
"59", 4.16, 1,    2386.58,   -0.9,   0.99367
"61", 4.16, 1,    2383.92,   -1.1,   0.99257
"62", 4.16, 1,    2382.83,   -1.1,   0.99211
"63", 4.16, 1,    2382.21,   -1.1,   0.99185
"64", 4.16, 1,    2381.28,   -1.1,   0.99147
"65", 4.16, 1,    2380.83,   -1.1,   0.99128
"66", 4.16, 1,    2380.31,   -1.1,   0.99106
"67", 4.16, 1,    2324.08,   -1.2,   0.96765
"68", 4.16, 1,    2323.24,   -1.2,    0.9673
"72", 4.16, 1,    2325.47,   -1.3,   0.96823
"97", 4.16, 1,    2322.97,   -1.2,   0.96719
"69", 4.16, 1,    2322.27,   -1.2,    0.9669
"70", 4.16, 1,    2321.59,   -1.2,   0.96661
"71", 4.16, 1,     2321.2,   -1.2,   0.96645
"73", 4.16, 1,    2324.31,   -1.3,   0.96775
"76", 4.16, 1,    2326.73,   -1.3,   0.96876
"74", 4.16, 1,    2323.33,   -1.3,   0.96734
"75", 4.16, 1,    2322.77,   -1.3,    0.9671
"77", 4.16, 1,    2329.75,   -1.4,   0.97001
"86", 4.16, 1,    2326.78,   -1.4,   0.96877
"78", 4.16, 1,    2330.54,   -1.4,   0.97034
"79", 4.16, 1,    2330.45,   -1.4,    0.9703
"80", 4.16, 1,    2334.54,   -1.5,     0.972
"81", 4.16, 1,    2336.09,   -1.5,   0.97265
"82", 4.16, 1,    2338.46,   -1.5,   0.97364
"84", 4.16, 1,    2334.67,   -1.5,   0.97206
"83", 4.16, 1,    2340.94,   -1.6,   0.97467
"85", 4.16, 1,    2334.01,   -1.5,   0.97179
"87", 4.16, 1,    2326.91,   -1.4,   0.96883
"88", 4.16, 1,    2326.98,   -1.4,   0.96886
"89", 4.16, 1,     2326.9,   -1.4,   0.96882
"90", 4.16, 1,    2327.01,   -1.4,   0.96887
"91", 4.16, 1,     2326.8,   -1.4,   0.96878
"92", 4.16, 1,    2326.93,   -1.4,   0.96884
"93", 4.16, 1,     2326.6,   -1.4,    0.9687
"94", 4.16, 1,    2326.22,   -1.4,   0.96854
"95", 4.16, 1,    2326.47,   -1.4,   0.96865
"96", 4.16, 1,    2326.33,   -1.4,   0.96859
"98", 4.16, 1,     2322.7,   -1.2,   0.96708
"99", 4.16, 1,    2322.41,   -1.2,   0.96695
"100", 4.16, 1,    2322.38,   -1.2,   0.96694
"450", 4.16, 1,    2322.38,   -1.2,   0.96694
"197", 4.16, 1,    2322.97,   -1.2,   0.96719
"101", 4.16, 1,     2322.1,   -1.3,   0.96683
"102", 4.16, 1,    2321.31,   -1.3,    0.9665
"105", 4.16, 1,    2321.44,   -1.3,   0.96655
"103", 4.16, 1,     2320.4,   -1.3,   0.96612
"104", 4.16, 1,    2319.41,   -1.3,   0.96571
"106", 4.16, 1,    2320.81,   -1.3,   0.96629
"108", 4.16, 1,    2320.95,   -1.3,   0.96635
"107", 4.16, 1,       2320,   -1.3,   0.96595
"109", 4.16, 1,    2318.73,   -1.3,   0.96542
"300", 4.16, 1,    2320.95,   -1.3,   0.96635
"110", 4.16, 1,    2317.68,   -1.3,   0.96499
"111", 4.16, 1,    2317.28,   -1.3,   0.96482
"112", 4.16, 1,    2317.33,   -1.3,   0.96484
"113", 4.16, 1,    2316.22,   -1.3,   0.96438
"114", 4.16, 1,    2315.99,   -1.3,   0.96428
"135", 4.16, 1,     2383.4,   -0.6,   0.99235
"152", 4.16, 1,    2392.28,   -0.6,   0.99605
"160R", 4.16, 1,    2324.33,   -1.1,   0.96776
"150R", 4.16, 1,       2415,    0.0,    1.0055
"160", 4.16, 1,    2383.92,   -1.1,   0.99257
"610", 4.16, 1,    2383.92,   -1.1,   0.99257
